LTspice 26.0.0 for Windows
Circuit: C:\Users\Marko\Desktop\MES RACING\V3\Simulacii\BSPD_Marko_V1_simulacija1.cir
Start Time: Sun Dec  7 18:45:59 2025
solver = Normal
Maximum thread count: 20
tnom = 27
temp = 27
method = trap
Direct Newton iteration succeeded in finding operating point.
Total elapsed time: 14.269 seconds.

Files loaded:
C:\Users\Marko\Desktop\MES RACING\V3\Simulacii\BSPD_Marko_V1_simulacija1.cir

